3
###
O    0.00000000  0.00000000  0.00000000
H    0.88244500 -0.33182000  0.00552800
H   -0.54706600 -0.76270600  0.05487900
O    2.62100600  0.29736600 -0.00353500
H    2.45367800  1.09384900 -0.47947200
H    3.54276800  0.31677100  0.18167200
O    0.93731000  2.26132800  0.02500000
H    1.08551900  1.57251100  0.65354700
H    0.18992400  1.92048200 -0.43664200
